84

 P   13.81335    20.08738   -10.29182  
 O   15.08125    19.34440   -11.06010  
 O   14.14030    21.54954   -10.05342  
 P   16.55292    18.95407   -10.44417  
 O   16.89647    17.56291   -10.94893  
 O   16.57913    19.30167    -8.96565  
 O   17.54171    19.96142   -11.28318  
 C   18.24246    21.07454   -10.70665  
 H   19.30573    20.82469   -10.66786  
 H   17.89171    21.25111    -9.69398  
 C   18.04855    22.32137   -11.54796  
 C   16.61469    22.55799   -12.04157  
 H   18.37114    23.18259   -10.95395  
 H   16.14533    21.59399   -12.23687  
 C   16.81948    23.29142   -13.37395  
 O   17.00981    24.68659   -13.15264  
 H   16.00685    23.12380   -14.08271  
 H   16.45165    24.89747   -12.38962  
 C   18.14062    22.69439   -13.87135  
 O   18.85938    22.24663   -12.74014  
 H   18.71236    23.44408   -14.41807  
 N   17.95195    21.56900   -14.78738  
 C   17.76664    21.68192   -16.14106  
 N   17.60500    22.79870   -16.85580  
 C   17.32446    22.53017   -18.12182  
 H   17.13176    23.38679   -18.75934  
 N   17.22802    21.33199   -18.70968  
 C   17.43193    20.21464   -17.98424  
 N   17.35487    19.01347   -18.57810  
 H   17.48362    18.18405   -18.02340  
 H   16.97765    18.93902   -19.51842  
 C   17.68843    20.37366   -16.61211  
 N   17.80178    19.47003   -15.57710  
 C   17.95752    20.21570   -14.51011  
 H   18.06252    19.85044   -13.50206  
 O   15.84020    23.31499   -11.13974  
 H   15.20930    22.69365   -10.69808  
 O   13.34529    19.22273    -9.13448  
 O   12.70997    19.89900   -11.48553  
 C   12.95640    20.53118   -12.76336  
 H   13.75267    21.26154   -12.68788  
 H   12.03960    21.05052   -13.04289  
 C   13.26519    19.46045   -13.80326  
 C   13.59378    20.14065   -15.13975  
 H   14.13540    18.88206   -13.47015  
 H   12.71782    20.70166   -15.46561  
 C   14.12680    19.26286   -16.29743  
 C   14.09540    20.03822   -17.62284  
 H   15.19014    19.09761   -16.09166  
 H   14.63969    19.46901   -18.37246  
 H   14.60342    20.98436   -17.46358  
 N   12.77613    20.37600   -18.17038  
 C   12.14184    19.51380   -19.07737  
 C   10.97066    19.97754   -19.74661  
 C   10.38375    19.11527   -20.70013  
 H    9.52284    19.49885   -21.23092  
 C   10.90012    17.86704   -21.01402  
 C   12.01757    17.40189   -20.29497  
 C   12.61202    18.22864   -19.33984  
 H   13.44354    17.84493   -18.77214  
 C   12.66789    16.08571   -20.62992  
 H   13.17313    16.11192   -21.60220  
 H   11.94560    15.26780   -20.68534  
 H   13.42429    15.83437   -19.88679  
 C   10.26014    16.99995   -22.06633  
 H    9.38762    17.48120   -22.49928  
 H    9.94180    16.03980   -21.64922  
 H   10.96067    16.77105   -22.87521  
 N   10.37881    21.16564   -19.45812  
 C   11.08560    22.02090   -18.67355  
 C   10.52015    23.33090   -18.35194  
 N   11.33425    24.11296   -17.53651  
 O    9.44299    23.77461   -18.73838  
 H   10.89045    24.92492   -17.10862  
 C   12.60885    23.77626   -17.06845  
 N   13.05599    22.51459   -17.32047  
 O   13.28172    24.63630   -16.49477  
 C   12.31219    21.68964   -18.03531  
 O   13.50790    17.98448   -16.42618  
 H   14.15251    17.31402   -16.14807  
 O   14.60490    21.12457   -14.87862  
 H   15.44187    20.65485   -14.76747  
 O   12.11753    18.60019   -13.89840  
 H   11.81434    18.50652   -12.98558  
