85

 P   13.88003    19.99231   -10.23629  
 O   15.14300    19.26808   -11.02698  
 O   14.18321    21.46341   -10.02036  
 P   16.62507    18.88715   -10.42837  
 O   16.97241    17.49670   -10.93170  
 O   16.66651    19.23465    -8.94948  
 O   17.59994    19.90042   -11.27566  
 C   18.31569    21.00658   -10.70657  
 H   19.37859    20.75493   -10.69120  
 H   17.98813    21.19060    -9.68644  
 C   18.10775    22.25678   -11.53781  
 C   16.66063    22.49702   -11.98795  
 H   18.45264    23.11476   -10.95117  
 H   16.18954    21.53396   -12.18203  
 C   16.83443    23.25072   -13.31169  
 O   17.04445    24.63960   -13.06877  
 H   15.99950    23.11154   -13.99922  
 H   16.52234    24.83673   -12.27718  
 C   18.13428    22.65012   -13.85843  
 O   18.88204    22.18371   -12.75290  
 H   18.69630    23.40661   -14.40738  
 N   17.91422    21.54014   -14.78465  
 C   17.72480    21.67984   -16.13421  
 N   17.54797    22.81208   -16.82379  
 C   17.27834    22.56965   -18.09760  
 H   17.08679    23.43910   -18.71749  
 N   17.20312    21.38423   -18.71261  
 C   17.42313    20.25289   -18.01232  
 N   17.37339    19.06541   -18.64075  
 H   17.48938    18.22770   -18.09527  
 H   16.95015    19.00541   -19.56177  
 C   17.67458    20.38122   -16.63683  
 N   17.81870    19.45672   -15.62369  
 C   17.95622    20.18029   -14.54149  
 H   18.06990    19.79706   -13.54048  
 O   15.90963    23.24153   -11.05523  
 H   15.28191    22.61640   -10.61558  
 O   13.44813    19.13385    -9.05979  
 O   12.74523    19.76629   -11.39269  
 C   12.88985    20.45324   -12.65914  
 H   13.65544    21.21473   -12.59543  
 H   11.93640    20.93865   -12.86742  
 C   13.18959    19.43886   -13.75235  
 C   13.36266    20.15919   -15.10125  
 H   14.11382    18.90594   -13.50015  
 H   12.38170    20.51061   -15.43005  
 C   14.04968    19.35456   -16.22662  
 C   14.01656    20.10882   -17.56684  
 H   15.10855    19.29394   -15.95495  
 H   14.60014    19.53906   -18.28860  
 H   14.50154    21.07093   -17.42821  
 N   12.70260    20.42163   -18.13476  
 C   12.10217    19.53527   -19.06056  
 C   10.91839    19.92163   -19.73480  
 C   10.38319    19.07614   -20.70464  
 H    9.48789    19.39923   -21.22102  
 C   10.92700    17.81832   -20.99084  
 C   12.04171    17.39865   -20.25947  
 C   12.61213    18.26504   -19.31875  
 H   13.45830    17.91724   -18.74944  
 C   12.72410    16.08696   -20.55270  
 H   13.23100    16.09226   -21.52426  
 H   12.01766    15.25290   -20.58303  
 H   13.48157    15.87004   -19.79907  
 C   10.31124    16.93085   -22.04214  
 H    9.38669    17.35143   -22.43058  
 H   10.08969    15.93254   -21.65241  
 H   10.99002    16.79125   -22.88989  
 N   10.27071    21.09278   -19.33311  
 C   11.10996    22.11562   -18.77146  
 C   10.53633    23.38853   -18.49299  
 N   11.41343    24.27004   -17.86088  
 O    9.39687    23.75165   -18.81818  
 H   10.99395    25.08722   -17.41432  
 C   12.71495    23.95492   -17.44568  
 N   13.12766    22.66595   -17.58971  
 O   13.43477    24.85184   -16.98846  
 C   12.31066    21.78304   -18.16832  
 O   13.55012    18.02358   -16.37859  
 H   14.25426    17.40904   -16.10809  
 O   14.19522    21.30147   -14.84259  
 H   14.19617    21.86131   -15.63631  
 O   12.08820    18.51456   -13.80640  
 H   11.83572    18.38932   -12.88222  
 H    9.59864    21.47262   -19.99727  
