88
FDA - Ideal conformer
  P       -1.66800       -0.57600       -3.23700
  O       -0.81200       -1.77600       -3.37800
  O       -3.19000       -1.02900       -2.97300
  O       -1.59500        0.29600       -4.58800
  C       -2.06600       -0.54000       -5.64700
  C       -2.02200        0.23200       -6.96600
  O       -0.66700        0.60600       -7.26900
  C       -2.52100       -0.66400       -8.11600
  O       -3.67000       -0.09200       -8.74300
  C       -1.32700       -0.70700       -9.10500
  O       -1.78200       -0.61800      -10.45600
  C       -0.52800        0.55900       -8.70500
  N        0.88000        0.42500       -9.08300
  C        1.85900       -0.17100       -8.34600
  N        2.99300       -0.11100       -8.98200
  C        2.81400        0.52500      -10.16500
  C        3.65300        0.87200      -11.23700
  N        4.99900        0.55100      -11.21600
  N        3.12300        1.51500      -12.27300
  C        1.84000        1.82500      -12.30200
  N        1.01700        1.52100      -11.32000
  C        1.45500        0.87200      -10.24600
  N        2.54300       -1.35800        7.43200
  C        3.86400       -1.40500        7.69100
  O        4.56300       -2.19600        7.08800
  N        4.42200       -0.59100        8.60500
  C        3.66900        0.29400        9.28800
  O        4.18100        1.03000       10.11500
  C        2.29000        0.36200        9.03700
  N        1.47200        1.28100        9.74000
  C        0.07900        1.12700        9.67500
  C       -0.75000        1.81300       10.54400
  C       -2.12300        1.64400       10.46200
  C       -3.02900        2.38800       11.40800
  C       -2.66300        0.79000        9.52000
  C       -4.15700        0.61100        9.43900
  C       -1.83700        0.10500        8.64400
  C       -0.46600        0.26900        8.71800
  N        0.38600       -0.41900        7.84100
  C        1.73700       -0.47100        8.10400
  C       -0.15800       -1.08000        6.65300
  C       -0.03800       -0.14400        5.44800
  O       -0.85200        1.01100        5.66000
  C       -0.50600       -0.87300        4.18700
  O        0.30700       -2.02800        3.97500
  C       -0.38600        0.06200        2.98300
  O       -1.20000        1.21800        3.19500
  C       -0.85400       -0.66600        1.72200
  O       -0.74200        0.20800        0.59700
  P       -1.24800       -0.61900       -0.68700
  O       -0.40000       -1.81800       -0.86700
  O       -2.77700       -1.07200       -0.46500
  O       -1.14900        0.31000       -1.99700
  H       -3.71200       -0.22000       -2.88700
  H       -1.43100       -1.42300       -5.72100
  H       -3.09100       -0.84700       -5.43900
  H       -2.64500        1.12300       -6.89400
  H       -2.74700       -1.66500       -7.74700
  H       -3.89600       -0.66500       -9.48800
  H       -0.72900       -1.60700       -8.95600
  H       -2.26800       -1.43300      -10.64200
  H       -0.96400        1.44700       -9.16200
  H        1.71600       -0.62500       -7.37700
  H        5.56700        0.79600      -11.96300
  H        5.37300        0.08100      -10.45500
  H        1.45100        2.34900      -13.16200
  H        2.16000       -1.95300        6.76900
  H        5.37600       -0.64300        8.77500
  H        1.86700        2.00200       10.25400
  H       -0.32900        2.47800       11.28400
  H       -3.30400        3.34700       10.96900
  H       -3.92900        1.80000       11.58800
  H       -2.51000        2.55700       12.35200
  H       -4.46000       -0.21300       10.08400
  H       -4.65100        1.52700        9.76400
  H       -4.44100        0.39100        8.41000
  H       -2.26400       -0.55800        7.90500
  H        0.39900       -1.99600        6.45800
  H       -1.20700       -1.32300        6.82100
  H        1.00000        0.16000        5.32700
  H       -1.75800        0.69600        5.78000
  H       -1.54600       -1.17800        4.30800
  H        1.21600       -1.71500        3.87300
  H        0.65200        0.36700        2.86200
  H       -2.10900        0.90400        3.29700
  H       -0.23300       -1.54700        1.56000
  H       -1.89400       -0.97100        1.84300
  H       -3.29500       -0.26300       -0.35200
